Version 4
SHEET 1 1600 1124
WIRE 0 -176 -32 -176
WIRE 128 -176 80 -176
WIRE -32 -160 -32 -176
WIRE -656 -48 -784 -48
WIRE -432 -32 -608 -32
WIRE 128 -32 128 -176
WIRE -432 -16 -432 -32
WIRE 96 -16 -432 -16
WIRE 288 0 160 0
WIRE 96 16 -256 16
WIRE 1200 48 1200 -48
WIRE 1264 48 1200 48
WIRE 288 64 288 0
WIRE 544 64 464 64
WIRE 928 64 864 64
WIRE 1200 64 1200 48
WIRE 1200 64 1152 64
WIRE 400 80 352 80
WIRE 464 80 464 64
WIRE 464 80 400 80
WIRE 864 80 864 64
WIRE 544 96 544 64
WIRE 576 96 544 96
WIRE 640 128 640 96
WIRE 928 128 640 128
WIRE 1264 128 1152 128
WIRE 128 176 128 144
WIRE -560 192 -768 192
WIRE 96 192 80 192
WIRE 928 192 656 192
WIRE 1264 192 1264 128
WIRE 1264 192 1152 192
WIRE 80 208 80 192
WIRE 80 208 -512 208
WIRE 288 208 288 128
WIRE 288 208 160 208
WIRE 96 224 -256 224
WIRE -256 240 -256 224
WIRE 928 256 864 256
WIRE 1184 256 1152 256
WIRE 1184 272 1184 256
WIRE 656 448 656 192
WIRE 720 448 656 448
WIRE 880 448 784 448
WIRE 1040 464 944 464
WIRE 400 512 400 80
WIRE 880 512 400 512
WIRE 1520 592 1520 528
WIRE 64 608 32 608
WIRE 192 608 144 608
WIRE 1472 608 1120 608
WIRE 32 624 32 608
WIRE 1040 624 1040 464
WIRE 1056 624 1040 624
WIRE 1056 640 832 640
WIRE 160 672 -144 672
WIRE -592 736 -720 736
WIRE -368 752 -544 752
WIRE 192 752 192 608
WIRE 160 768 160 672
WIRE 352 784 224 784
WIRE -368 800 -368 752
WIRE 160 800 -368 800
WIRE 352 832 352 784
WIRE 416 832 352 832
WIRE 144 848 -112 848
WIRE 352 848 352 832
WIRE -112 864 -112 848
WIRE 832 864 832 640
WIRE 848 864 832 864
WIRE 416 896 416 832
WIRE 416 912 352 912
WIRE 832 912 832 864
WIRE 832 912 480 912
WIRE 192 960 192 928
WIRE -576 976 -784 976
WIRE -304 976 -528 976
WIRE 144 976 144 848
WIRE 160 976 144 976
WIRE -528 992 -528 976
WIRE 352 992 352 912
WIRE 352 992 224 992
WIRE -528 1008 -528 992
WIRE -304 1008 -304 976
WIRE 160 1008 -304 1008
FLAG 128 -176 5V
FLAG 128 144 5V
FLAG 128 32 0
FLAG -32 -160 0
FLAG 128 240 0
FLAG -256 320 0
FLAG -256 96 0
FLAG -608 -128 5V
FLAG -512 112 5V
FLAG -608 48 0
FLAG -512 288 0
FLAG -784 32 0
FLAG -768 272 0
FLAG 464 160 0
FLAG 864 80 0
FLAG 1200 -48 5V
FLAG 864 256 5V
FLAG 1264 256 0
FLAG 1184 336 0
FLAG 192 608 5V
FLAG 192 928 5V
FLAG 192 816 0
FLAG 32 624 0
FLAG 192 1024 0
FLAG -112 944 0
FLAG -144 752 0
FLAG -544 656 5V
FLAG -528 896 5V
FLAG -544 832 0
FLAG -528 1072 0
FLAG -720 816 0
FLAG -784 1056 0
FLAG 1520 768 0
FLAG 1520 528 5V
SYMBOL OpAmps\\OP07 128 -64 R0
SYMATTR InstName U1
SYMBOL OpAmps\\OP07 128 144 R0
SYMATTR InstName U2
SYMBOL voltage 96 -176 R90
WINDOW 0 -32 56 VBottom 2
WINDOW 3 32 56 VTop 2
SYMATTR InstName V1
SYMATTR Value 5
SYMBOL voltage -256 0 R0
WINDOW 123 0 0 Left 0
WINDOW 39 0 0 Left 0
SYMATTR InstName V2
SYMATTR Value 0.45
SYMBOL voltage -256 224 R0
WINDOW 123 0 0 Left 0
WINDOW 39 0 0 Left 0
SYMATTR InstName V3
SYMATTR Value 0.45
SYMBOL Digital\\or 320 32 R0
SYMATTR InstName A1
SYMBOL nmos -656 -128 R0
SYMATTR InstName M1
SYMBOL nmos -560 112 R0
SYMATTR InstName M2
SYMBOL res -624 -48 R0
SYMATTR InstName R1
SYMATTR Value 10k
SYMBOL res -528 192 R0
SYMATTR InstName R2
SYMATTR Value 10k
SYMBOL voltage -784 -64 R0
WINDOW 123 0 0 Left 0
WINDOW 39 0 0 Left 0
SYMATTR InstName V4
SYMATTR Value PULSE()
SYMBOL voltage -768 176 R0
WINDOW 123 0 0 Left 0
WINDOW 39 0 0 Left 0
SYMATTR InstName V5
SYMATTR Value 5
SYMBOL res 448 64 R0
SYMATTR InstName R3
SYMATTR Value 10k
SYMBOL Misc\\NE555 1040 160 R0
SYMATTR InstName U3
SYMBOL Digital\\inv 576 32 R0
SYMATTR InstName A2
SYMBOL cap 1248 192 R0
SYMATTR InstName C1
SYMATTR Value 0.000009
SYMBOL cap 1168 272 R0
SYMATTR InstName C2
SYMATTR Value 0.00010
SYMBOL res 1248 32 R0
SYMATTR InstName R4
SYMATTR Value 10K
SYMBOL Digital\\inv 720 384 R0
SYMATTR InstName A3
SYMBOL Digital\\and 912 416 R0
SYMATTR InstName A4
SYMBOL OpAmps\\OP07 192 720 R0
SYMATTR InstName U4
SYMBOL OpAmps\\OP07 192 928 R0
SYMATTR InstName U5
SYMBOL voltage 160 608 R90
WINDOW 0 -32 56 VBottom 2
WINDOW 3 32 56 VTop 2
SYMATTR InstName V6
SYMATTR Value 5
SYMBOL voltage -144 656 R0
WINDOW 123 0 0 Left 0
WINDOW 39 0 0 Left 0
SYMATTR InstName V7
SYMATTR Value 0.45
SYMBOL voltage -112 848 R0
WINDOW 123 0 0 Left 0
WINDOW 39 0 0 Left 0
SYMATTR InstName V8
SYMATTR Value 0.45
SYMBOL nmos -592 656 R0
SYMATTR InstName M3
SYMBOL nmos -576 896 R0
SYMATTR InstName M4
SYMBOL res -560 736 R0
SYMATTR InstName R5
SYMATTR Value 10k
SYMBOL res -544 976 R0
SYMATTR InstName R6
SYMATTR Value 10k
SYMBOL voltage -720 720 R0
WINDOW 123 0 0 Left 0
WINDOW 39 0 0 Left 0
SYMATTR InstName V9
SYMATTR Value PULSE()
SYMBOL voltage -784 960 R0
WINDOW 123 0 0 Left 0
WINDOW 39 0 0 Left 0
SYMATTR InstName V10
SYMATTR Value 5
SYMBOL Digital\\or 1088 560 R0
SYMATTR InstName A6
SYMBOL pmos 1472 688 M180
SYMATTR InstName M5
SYMBOL res 1504 672 R0
SYMATTR InstName R7
SYMATTR Value 10k
SYMBOL Digital\\and 448 864 R0
SYMATTR InstName A5
